_cell_length_a 10.759393
_cell_length_b 10.759393
_cell_length_c 10.759393
_cell_angle_alpha 60.000000
_cell_angle_beta 60.000000
_cell_angle_gamma 60.000000
loop_
_atom_site_label
_atom_type_symbol
_atom_site_fract_x
_atom_site_fract_y
_atom_site_fract_z
1 Li 0.000000 0.000000 0.000000
2 Li 0.000000 0.000000 0.500000
3 Li 0.000000 0.500000 0.000000
4 Li 0.000000 0.500000 0.500000
5 Li 0.500000 0.000000 0.000000
6 Li 0.500000 0.000000 0.500000
7 Li 0.500000 0.500000 0.000000
8 Li 0.500000 0.500000 0.500000
9 F 0.250000 0.250000 0.250000
10 F 0.250000 0.250000 0.750000
11 F 0.250000 0.750000 0.250000
12 F 0.250000 0.750000 0.750000
13 F 0.750000 0.250000 0.250000
14 F 0.750000 0.250000 0.750000
15 F 0.750000 0.750000 0.250000
16 F 0.750000 0.750000 0.750000
